* NGSPICE file created from chip_io.ext - technology: sky130A

* Black-box entry subcircuit for sky130_ef_io__com_bus_slice_20um abstract view
.subckt sky130_ef_io__com_bus_slice_20um AMUXBUS_A AMUXBUS_B VSSA VDDA VSWITCH VDDIO_Q
+ VCCHIB VDDIO VCCD VSSIO VSSD VSSIO_Q
.ends

* Black-box entry subcircuit for sky130_ef_io__com_bus_slice_1um abstract view
.subckt sky130_ef_io__com_bus_slice_1um AMUXBUS_A AMUXBUS_B VSSA VDDA VSWITCH VDDIO_Q
+ VCCHIB VDDIO VCCD VSSIO VSSD VSSIO_Q
.ends

* Black-box entry subcircuit for sky130_ef_io__com_bus_slice_5um abstract view
.subckt sky130_ef_io__com_bus_slice_5um AMUXBUS_A AMUXBUS_B VSSA VDDA VSWITCH VDDIO_Q
+ VCCHIB VDDIO VCCD VSSIO VSSD VSSIO_Q
.ends

* Black-box entry subcircuit for sky130_ef_io__gpiov2_pad_wrapped abstract view
.subckt sky130_ef_io__gpiov2_pad_wrapped AMUXBUS_A AMUXBUS_B ANALOG_EN ANALOG_POL
+ ANALOG_SEL DM[2] DM[1] DM[0] ENABLE_H ENABLE_INP_H ENABLE_VDDA_H ENABLE_VDDIO ENABLE_VSWITCH_H
+ HLD_H_N HLD_OVR IB_MODE_SEL IN IN_H INP_DIS OE_N OUT PAD PAD_A_ESD_0_H PAD_A_ESD_1_H
+ PAD_A_NOESD_H SLOW TIE_HI_ESD TIE_LO_ESD VCCD VCCHIB VDDA VDDIO VDDIO_Q VSSA VSSD
+ VSSIO VSSIO_Q VSWITCH VTRIP_SEL
.ends

* Black-box entry subcircuit for sky130_fd_io__top_power_lvc_wpad abstract view
.subckt sky130_fd_io__top_power_lvc_wpad AMUXBUS_A AMUXBUS_B P_PAD BDY2_B2B DRN_LVC1
+ DRN_LVC2 OGC_LVC P_CORE SRC_BDY_LVC1 SRC_BDY_LVC2 VCCD VCCHIB VDDA VDDIO VDDIO_Q
+ VSSA VSSD VSSIO VSSIO_Q VSWITCH
.ends

* Black-box entry subcircuit for sky130_ef_io__vccd_lvc_pad abstract view
.subckt sky130_ef_io__vccd_lvc_pad AMUXBUS_A AMUXBUS_B DRN_LVC1 DRN_LVC2 SRC_BDY_LVC1
+ SRC_BDY_LVC2 BDY2_B2B VSSA VDDA VSWITCH VDDIO_Q VCCHIB VDDIO VCCD VSSIO VSSD VSSIO_Q
.ends

* Black-box entry subcircuit for sky130_ef_io__vssa_hvc_pad abstract view
.subckt sky130_ef_io__vssa_hvc_pad AMUXBUS_A AMUXBUS_B DRN_HVC SRC_BDY_HVC VSSA VDDA
+ VSWITCH VDDIO_Q VCCHIB VDDIO VCCD VSSIO VSSD VSSIO_Q
.ends

* Black-box entry subcircuit for sky130_ef_io__vssd_lvc_pad abstract view
.subckt sky130_ef_io__vssd_lvc_pad AMUXBUS_A AMUXBUS_B DRN_LVC1 DRN_LVC2 SRC_BDY_LVC1
+ SRC_BDY_LVC2 BDY2_B2B VSSA VDDA VSWITCH VDDIO_Q VCCHIB VDDIO VCCD VSSIO VSSD VSSIO_Q
.ends

* Black-box entry subcircuit for sky130_ef_io__vddio_hvc_pad abstract view
.subckt sky130_ef_io__vddio_hvc_pad AMUXBUS_A AMUXBUS_B DRN_HVC SRC_BDY_HVC VSSA VDDA
+ VSWITCH VDDIO_Q VCCHIB VDDIO VCCD VSSIO VSSD VSSIO_Q
.ends

* Black-box entry subcircuit for sky130_ef_io__corner_pad abstract view
.subckt sky130_ef_io__corner_pad AMUXBUS_A AMUXBUS_B VSSA VDDA VSWITCH VDDIO_Q VCCHIB
+ VDDIO VCCD VSSIO VSSD VSSIO_Q
.ends

* Black-box entry subcircuit for sky130_ef_io__vdda_hvc_pad abstract view
.subckt sky130_ef_io__vdda_hvc_pad AMUXBUS_A AMUXBUS_B DRN_HVC SRC_BDY_HVC VSSA VDDA
+ VSWITCH VDDIO_Q VCCHIB VDDIO VCCD VSSIO VSSD VSSIO_Q
.ends

* Black-box entry subcircuit for sky130_ef_io__vssio_hvc_pad abstract view
.subckt sky130_ef_io__vssio_hvc_pad AMUXBUS_A AMUXBUS_B DRN_HVC SRC_BDY_HVC VSSA VDDA
+ VSWITCH VDDIO_Q VCCHIB VDDIO VCCD VSSIO VSSD VSSIO_Q
.ends

.subckt chip_io B_CP B_CP_pll B_VCO B_VCO_pll CLK CLK_pll EN_CP EN_CP_pll EN_VCO EN_VCO_pll
+ B_0_pll GPIO_0 B_1_pll GPIO_1 B_2_pll GPIO_2 B_3_pll GPIO_3 PORB REF_CLK REF_CLK_pll
+ vccd VCO_IN VCO_IN_pll vdda vddio vssa vssd vssio
XFILLER_581 CLK_PAD/AMUXBUS_A CLK_PAD/AMUXBUS_B FILLER_580/VSSA FILLER_580/VDDA FILLER_580/VSWITCH
+ FILLER_580/VDDIO_Q FILLER_580/VCCHIB FILLER_580/VDDIO FILLER_580/VCCD FILLER_580/VSSIO
+ FILLER_580/VSSD FILLER_580/VSSIO_Q sky130_ef_io__com_bus_slice_20um
XFILLER_570 CLK_PAD/AMUXBUS_A CLK_PAD/AMUXBUS_B FILLER_580/VSSA FILLER_580/VDDA FILLER_580/VSWITCH
+ FILLER_580/VDDIO_Q FILLER_580/VCCHIB FILLER_580/VDDIO FILLER_580/VCCD FILLER_580/VSSIO
+ FILLER_580/VSSD FILLER_580/VSSIO_Q sky130_ef_io__com_bus_slice_20um
XFILLER_592 CLK_PAD/AMUXBUS_A CLK_PAD/AMUXBUS_B CLK_PAD/VSSA vdda CLK_PAD/VSWITCH
+ CLK_PAD/VDDIO_Q CLK_PAD/VCCHIB CLK_PAD/VDDIO vccd CLK_PAD/VSSIO vssd CLK_PAD/VSSIO_Q
+ sky130_ef_io__com_bus_slice_20um
XFILLER_25 CLK_PAD/AMUXBUS_A CLK_PAD/AMUXBUS_B vssa corner_3/VDDA corner_3/VSWITCH
+ corner_3/VDDIO_Q corner_3/VCCHIB vddio corner_3/VCCD vssio corner_3/VSSD corner_3/VSSIO_Q
+ sky130_ef_io__com_bus_slice_20um
XFILLER_14 CLK_PAD/AMUXBUS_A CLK_PAD/AMUXBUS_B vssa corner_3/VDDA corner_3/VSWITCH
+ corner_3/VDDIO_Q corner_3/VCCHIB vddio corner_3/VCCD vssio corner_3/VSSD corner_3/VSSIO_Q
+ sky130_ef_io__com_bus_slice_20um
XFILLER_69 CLK_PAD/AMUXBUS_A CLK_PAD/AMUXBUS_B vssa corner_3/VDDA corner_3/VSWITCH
+ corner_3/VDDIO_Q corner_3/VCCHIB vddio corner_3/VCCD vssio corner_3/VSSD corner_3/VSSIO_Q
+ sky130_ef_io__com_bus_slice_20um
XFILLER_58 CLK_PAD/AMUXBUS_A CLK_PAD/AMUXBUS_B vssa corner_3/VDDA corner_3/VSWITCH
+ corner_3/VDDIO_Q corner_3/VCCHIB vddio corner_3/VCCD vssio corner_3/VSSD corner_3/VSSIO_Q
+ sky130_ef_io__com_bus_slice_20um
XFILLER_47 CLK_PAD/AMUXBUS_A CLK_PAD/AMUXBUS_B vssa corner_3/VDDA corner_3/VSWITCH
+ corner_3/VDDIO_Q corner_3/VCCHIB vddio corner_3/VCCD vssio corner_3/VSSD corner_3/VSSIO_Q
+ sky130_ef_io__com_bus_slice_20um
XFILLER_36 CLK_PAD/AMUXBUS_A CLK_PAD/AMUXBUS_B vssa corner_3/VDDA corner_3/VSWITCH
+ corner_3/VDDIO_Q corner_3/VCCHIB vddio corner_3/VCCD vssio corner_3/VSSD corner_3/VSSIO_Q
+ sky130_ef_io__com_bus_slice_20um
XFILLER_229 CLK_PAD/AMUXBUS_A CLK_PAD/AMUXBUS_B CLK_PAD/VSSA vdda CLK_PAD/VSWITCH
+ CLK_PAD/VDDIO_Q CLK_PAD/VCCHIB CLK_PAD/VDDIO vccd CLK_PAD/VSSIO vssd CLK_PAD/VSSIO_Q
+ sky130_ef_io__com_bus_slice_20um
XFILLER_218 CLK_PAD/AMUXBUS_A CLK_PAD/AMUXBUS_B CLK_PAD/VSSA vdda CLK_PAD/VSWITCH
+ CLK_PAD/VDDIO_Q CLK_PAD/VCCHIB CLK_PAD/VDDIO vccd CLK_PAD/VSSIO vssd CLK_PAD/VSSIO_Q
+ sky130_ef_io__com_bus_slice_20um
XFILLER_207 CLK_PAD/AMUXBUS_A CLK_PAD/AMUXBUS_B CLK_PAD/VSSA vdda CLK_PAD/VSWITCH
+ CLK_PAD/VDDIO_Q CLK_PAD/VCCHIB CLK_PAD/VDDIO vccd CLK_PAD/VSSIO vssd CLK_PAD/VSSIO_Q
+ sky130_ef_io__com_bus_slice_20um
XFILLER_796 CLK_PAD/AMUXBUS_A CLK_PAD/AMUXBUS_B vssa corner_3/VDDA corner_3/VSWITCH
+ corner_3/VDDIO_Q corner_3/VCCHIB vddio corner_3/VCCD vssio corner_3/VSSD corner_3/VSSIO_Q
+ sky130_ef_io__com_bus_slice_20um
XFILLER_785 CLK_PAD/AMUXBUS_A CLK_PAD/AMUXBUS_B vssa corner_3/VDDA corner_3/VSWITCH
+ corner_3/VDDIO_Q corner_3/VCCHIB vddio corner_3/VCCD vssio corner_3/VSSD corner_3/VSSIO_Q
+ sky130_ef_io__com_bus_slice_20um
XFILLER_774 CLK_PAD/AMUXBUS_A CLK_PAD/AMUXBUS_B vssa corner_3/VDDA corner_3/VSWITCH
+ corner_3/VDDIO_Q corner_3/VCCHIB vddio corner_3/VCCD vssio corner_3/VSSD corner_3/VSSIO_Q
+ sky130_ef_io__com_bus_slice_20um
XFILLER_763 CLK_PAD/AMUXBUS_A CLK_PAD/AMUXBUS_B vssa corner_3/VDDA corner_3/VSWITCH
+ corner_3/VDDIO_Q corner_3/VCCHIB vddio corner_3/VCCD vssio corner_3/VSSD corner_3/VSSIO_Q
+ sky130_ef_io__com_bus_slice_20um
XFILLER_752 CLK_PAD/AMUXBUS_A CLK_PAD/AMUXBUS_B vssa corner_3/VDDA corner_3/VSWITCH
+ corner_3/VDDIO_Q corner_3/VCCHIB vddio corner_3/VCCD vssio corner_3/VSSD corner_3/VSSIO_Q
+ sky130_ef_io__com_bus_slice_20um
XFILLER_741 CLK_PAD/AMUXBUS_A CLK_PAD/AMUXBUS_B vssa corner_3/VDDA corner_3/VSWITCH
+ corner_3/VDDIO_Q corner_3/VCCHIB vddio corner_3/VCCD vssio corner_3/VSSD corner_3/VSSIO_Q
+ sky130_ef_io__com_bus_slice_20um
XFILLER_730 CLK_PAD/AMUXBUS_A CLK_PAD/AMUXBUS_B vssa corner_3/VDDA corner_3/VSWITCH
+ corner_3/VDDIO_Q corner_3/VCCHIB vddio corner_3/VCCD vssio corner_3/VSSD corner_3/VSSIO_Q
+ sky130_ef_io__com_bus_slice_20um
XFILLER_582 CLK_PAD/AMUXBUS_A CLK_PAD/AMUXBUS_B FILLER_580/VSSA FILLER_580/VDDA FILLER_580/VSWITCH
+ FILLER_580/VDDIO_Q FILLER_580/VCCHIB FILLER_580/VDDIO FILLER_580/VCCD FILLER_580/VSSIO
+ FILLER_580/VSSD FILLER_580/VSSIO_Q sky130_ef_io__com_bus_slice_20um
XFILLER_571 CLK_PAD/AMUXBUS_A CLK_PAD/AMUXBUS_B FILLER_580/VSSA FILLER_580/VDDA FILLER_580/VSWITCH
+ FILLER_580/VDDIO_Q FILLER_580/VCCHIB FILLER_580/VDDIO FILLER_580/VCCD FILLER_580/VSSIO
+ FILLER_580/VSSD FILLER_580/VSSIO_Q sky130_ef_io__com_bus_slice_20um
XFILLER_560 CLK_PAD/AMUXBUS_A CLK_PAD/AMUXBUS_B B_CP_PAD/VSSA B_CP_PAD/VDDA B_CP_PAD/VSWITCH
+ B_CP_PAD/VDDIO_Q B_CP_PAD/VCCHIB B_CP_PAD/VDDIO B_CP_PAD/VCCD B_CP_PAD/VSSIO B_CP_PAD/VSSD
+ B_CP_PAD/VSSIO_Q sky130_ef_io__com_bus_slice_1um
XFILLER_593 CLK_PAD/AMUXBUS_A CLK_PAD/AMUXBUS_B CLK_PAD/VSSA vdda CLK_PAD/VSWITCH
+ CLK_PAD/VDDIO_Q CLK_PAD/VCCHIB CLK_PAD/VDDIO vccd CLK_PAD/VSSIO vssd CLK_PAD/VSSIO_Q
+ sky130_ef_io__com_bus_slice_20um
XFILLER_390 CLK_PAD/AMUXBUS_A CLK_PAD/AMUXBUS_B CLK_PAD/VSSA vdda CLK_PAD/VSWITCH
+ CLK_PAD/VDDIO_Q CLK_PAD/VCCHIB CLK_PAD/VDDIO vccd CLK_PAD/VSSIO vssd CLK_PAD/VSSIO_Q
+ sky130_ef_io__com_bus_slice_20um
XFILLER_59 CLK_PAD/AMUXBUS_A CLK_PAD/AMUXBUS_B vssa corner_3/VDDA corner_3/VSWITCH
+ corner_3/VDDIO_Q corner_3/VCCHIB vddio corner_3/VCCD vssio corner_3/VSSD corner_3/VSSIO_Q
+ sky130_ef_io__com_bus_slice_20um
XFILLER_48 CLK_PAD/AMUXBUS_A CLK_PAD/AMUXBUS_B vssa corner_3/VDDA corner_3/VSWITCH
+ corner_3/VDDIO_Q corner_3/VCCHIB vddio corner_3/VCCD vssio corner_3/VSSD corner_3/VSSIO_Q
+ sky130_ef_io__com_bus_slice_20um
XFILLER_37 CLK_PAD/AMUXBUS_A CLK_PAD/AMUXBUS_B vssa corner_3/VDDA corner_3/VSWITCH
+ corner_3/VDDIO_Q corner_3/VCCHIB vddio corner_3/VCCD vssio corner_3/VSSD corner_3/VSSIO_Q
+ sky130_ef_io__com_bus_slice_20um
XFILLER_26 CLK_PAD/AMUXBUS_A CLK_PAD/AMUXBUS_B vssa corner_3/VDDA corner_3/VSWITCH
+ corner_3/VDDIO_Q corner_3/VCCHIB vddio corner_3/VCCD vssio corner_3/VSSD corner_3/VSSIO_Q
+ sky130_ef_io__com_bus_slice_20um
XFILLER_15 CLK_PAD/AMUXBUS_A CLK_PAD/AMUXBUS_B vssa corner_3/VDDA corner_3/VSWITCH
+ corner_3/VDDIO_Q corner_3/VCCHIB vddio corner_3/VCCD vssio corner_3/VSSD corner_3/VSSIO_Q
+ sky130_ef_io__com_bus_slice_20um
XFILLER_219 CLK_PAD/AMUXBUS_A CLK_PAD/AMUXBUS_B CLK_PAD/VSSA vdda CLK_PAD/VSWITCH
+ CLK_PAD/VDDIO_Q CLK_PAD/VCCHIB CLK_PAD/VDDIO vccd CLK_PAD/VSSIO vssd CLK_PAD/VSSIO_Q
+ sky130_ef_io__com_bus_slice_20um
XFILLER_208 CLK_PAD/AMUXBUS_A CLK_PAD/AMUXBUS_B CLK_PAD/VSSA vdda CLK_PAD/VSWITCH
+ CLK_PAD/VDDIO_Q CLK_PAD/VCCHIB CLK_PAD/VDDIO vccd CLK_PAD/VSSIO vssd CLK_PAD/VSSIO_Q
+ sky130_ef_io__com_bus_slice_20um
XFILLER_797 CLK_PAD/AMUXBUS_A CLK_PAD/AMUXBUS_B vssa corner_3/VDDA corner_3/VSWITCH
+ corner_3/VDDIO_Q corner_3/VCCHIB vddio corner_3/VCCD vssio corner_3/VSSD corner_3/VSSIO_Q
+ sky130_ef_io__com_bus_slice_1um
XFILLER_786 CLK_PAD/AMUXBUS_A CLK_PAD/AMUXBUS_B vssa corner_3/VDDA corner_3/VSWITCH
+ corner_3/VDDIO_Q corner_3/VCCHIB vddio corner_3/VCCD vssio corner_3/VSSD corner_3/VSSIO_Q
+ sky130_ef_io__com_bus_slice_20um
XFILLER_775 CLK_PAD/AMUXBUS_A CLK_PAD/AMUXBUS_B vssa corner_3/VDDA corner_3/VSWITCH
+ corner_3/VDDIO_Q corner_3/VCCHIB vddio corner_3/VCCD vssio corner_3/VSSD corner_3/VSSIO_Q
+ sky130_ef_io__com_bus_slice_20um
XFILLER_764 CLK_PAD/AMUXBUS_A CLK_PAD/AMUXBUS_B vssa corner_3/VDDA corner_3/VSWITCH
+ corner_3/VDDIO_Q corner_3/VCCHIB vddio corner_3/VCCD vssio corner_3/VSSD corner_3/VSSIO_Q
+ sky130_ef_io__com_bus_slice_20um
XFILLER_753 CLK_PAD/AMUXBUS_A CLK_PAD/AMUXBUS_B vssa corner_3/VDDA corner_3/VSWITCH
+ corner_3/VDDIO_Q corner_3/VCCHIB vddio corner_3/VCCD vssio corner_3/VSSD corner_3/VSSIO_Q
+ sky130_ef_io__com_bus_slice_20um
XFILLER_742 CLK_PAD/AMUXBUS_A CLK_PAD/AMUXBUS_B vssa corner_3/VDDA corner_3/VSWITCH
+ corner_3/VDDIO_Q corner_3/VCCHIB vddio corner_3/VCCD vssio corner_3/VSSD corner_3/VSSIO_Q
+ sky130_ef_io__com_bus_slice_20um
XFILLER_731 CLK_PAD/AMUXBUS_A CLK_PAD/AMUXBUS_B vssa corner_3/VDDA corner_3/VSWITCH
+ corner_3/VDDIO_Q corner_3/VCCHIB vddio corner_3/VCCD vssio corner_3/VSSD corner_3/VSSIO_Q
+ sky130_ef_io__com_bus_slice_20um
XFILLER_583 CLK_PAD/AMUXBUS_A CLK_PAD/AMUXBUS_B FILLER_580/VSSA FILLER_580/VDDA FILLER_580/VSWITCH
+ FILLER_580/VDDIO_Q FILLER_580/VCCHIB FILLER_580/VDDIO FILLER_580/VCCD FILLER_580/VSSIO
+ FILLER_580/VSSD FILLER_580/VSSIO_Q sky130_ef_io__com_bus_slice_20um
XFILLER_572 CLK_PAD/AMUXBUS_A CLK_PAD/AMUXBUS_B FILLER_580/VSSA FILLER_580/VDDA FILLER_580/VSWITCH
+ FILLER_580/VDDIO_Q FILLER_580/VCCHIB FILLER_580/VDDIO FILLER_580/VCCD FILLER_580/VSSIO
+ FILLER_580/VSSD FILLER_580/VSSIO_Q sky130_ef_io__com_bus_slice_20um
XFILLER_561 CLK_PAD/AMUXBUS_A CLK_PAD/AMUXBUS_B B_CP_PAD/VSSA B_CP_PAD/VDDA B_CP_PAD/VSWITCH
+ B_CP_PAD/VDDIO_Q B_CP_PAD/VCCHIB B_CP_PAD/VDDIO B_CP_PAD/VCCD B_CP_PAD/VSSIO B_CP_PAD/VSSD
+ B_CP_PAD/VSSIO_Q sky130_ef_io__com_bus_slice_1um
XFILLER_550 CLK_PAD/AMUXBUS_A CLK_PAD/AMUXBUS_B B_CP_PAD/VSSA B_CP_PAD/VDDA B_CP_PAD/VSWITCH
+ B_CP_PAD/VDDIO_Q B_CP_PAD/VCCHIB B_CP_PAD/VDDIO B_CP_PAD/VCCD B_CP_PAD/VSSIO B_CP_PAD/VSSD
+ B_CP_PAD/VSSIO_Q sky130_ef_io__com_bus_slice_20um
XFILLER_594 CLK_PAD/AMUXBUS_A CLK_PAD/AMUXBUS_B CLK_PAD/VSSA vdda CLK_PAD/VSWITCH
+ CLK_PAD/VDDIO_Q CLK_PAD/VCCHIB CLK_PAD/VDDIO vccd CLK_PAD/VSSIO vssd CLK_PAD/VSSIO_Q
+ sky130_ef_io__com_bus_slice_20um
XFILLER_380 CLK_PAD/AMUXBUS_A CLK_PAD/AMUXBUS_B CLK_PAD/VSSA vdda CLK_PAD/VSWITCH
+ CLK_PAD/VDDIO_Q CLK_PAD/VCCHIB CLK_PAD/VDDIO vccd CLK_PAD/VSSIO vssd CLK_PAD/VSSIO_Q
+ sky130_ef_io__com_bus_slice_1um
XFILLER_391 CLK_PAD/AMUXBUS_A CLK_PAD/AMUXBUS_B CLK_PAD/VSSA vdda CLK_PAD/VSWITCH
+ CLK_PAD/VDDIO_Q CLK_PAD/VCCHIB CLK_PAD/VDDIO vccd CLK_PAD/VSSIO vssd CLK_PAD/VSSIO_Q
+ sky130_ef_io__com_bus_slice_20um
XFILLER_49 CLK_PAD/AMUXBUS_A CLK_PAD/AMUXBUS_B vssa corner_3/VDDA corner_3/VSWITCH
+ corner_3/VDDIO_Q corner_3/VCCHIB vddio corner_3/VCCD vssio corner_3/VSSD corner_3/VSSIO_Q
+ sky130_ef_io__com_bus_slice_20um
XFILLER_38 CLK_PAD/AMUXBUS_A CLK_PAD/AMUXBUS_B vssa corner_3/VDDA corner_3/VSWITCH
+ corner_3/VDDIO_Q corner_3/VCCHIB vddio corner_3/VCCD vssio corner_3/VSSD corner_3/VSSIO_Q
+ sky130_ef_io__com_bus_slice_20um
XFILLER_27 CLK_PAD/AMUXBUS_A CLK_PAD/AMUXBUS_B vssa corner_3/VDDA corner_3/VSWITCH
+ corner_3/VDDIO_Q corner_3/VCCHIB vddio corner_3/VCCD vssio corner_3/VSSD corner_3/VSSIO_Q
+ sky130_ef_io__com_bus_slice_20um
XFILLER_16 CLK_PAD/AMUXBUS_A CLK_PAD/AMUXBUS_B vssa corner_3/VDDA corner_3/VSWITCH
+ corner_3/VDDIO_Q corner_3/VCCHIB vddio corner_3/VCCD vssio corner_3/VSSD corner_3/VSSIO_Q
+ sky130_ef_io__com_bus_slice_20um
XFILLER_209 CLK_PAD/AMUXBUS_A CLK_PAD/AMUXBUS_B CLK_PAD/VSSA vdda CLK_PAD/VSWITCH
+ CLK_PAD/VDDIO_Q CLK_PAD/VCCHIB CLK_PAD/VDDIO vccd CLK_PAD/VSSIO vssd CLK_PAD/VSSIO_Q
+ sky130_ef_io__com_bus_slice_20um
XFILLER_798 CLK_PAD/AMUXBUS_A CLK_PAD/AMUXBUS_B vssa corner_3/VDDA corner_3/VSWITCH
+ corner_3/VDDIO_Q corner_3/VCCHIB vddio corner_3/VCCD vssio corner_3/VSSD corner_3/VSSIO_Q
+ sky130_ef_io__com_bus_slice_1um
XFILLER_787 CLK_PAD/AMUXBUS_A CLK_PAD/AMUXBUS_B vssa corner_3/VDDA corner_3/VSWITCH
+ corner_3/VDDIO_Q corner_3/VCCHIB vddio corner_3/VCCD vssio corner_3/VSSD corner_3/VSSIO_Q
+ sky130_ef_io__com_bus_slice_20um
XFILLER_776 CLK_PAD/AMUXBUS_A CLK_PAD/AMUXBUS_B vssa corner_3/VDDA corner_3/VSWITCH
+ corner_3/VDDIO_Q corner_3/VCCHIB vddio corner_3/VCCD vssio corner_3/VSSD corner_3/VSSIO_Q
+ sky130_ef_io__com_bus_slice_20um
XFILLER_765 CLK_PAD/AMUXBUS_A CLK_PAD/AMUXBUS_B vssa corner_3/VDDA corner_3/VSWITCH
+ corner_3/VDDIO_Q corner_3/VCCHIB vddio corner_3/VCCD vssio corner_3/VSSD corner_3/VSSIO_Q
+ sky130_ef_io__com_bus_slice_20um
XFILLER_754 CLK_PAD/AMUXBUS_A CLK_PAD/AMUXBUS_B vssa corner_3/VDDA corner_3/VSWITCH
+ corner_3/VDDIO_Q corner_3/VCCHIB vddio corner_3/VCCD vssio corner_3/VSSD corner_3/VSSIO_Q
+ sky130_ef_io__com_bus_slice_20um
XFILLER_743 CLK_PAD/AMUXBUS_A CLK_PAD/AMUXBUS_B vssa corner_3/VDDA corner_3/VSWITCH
+ corner_3/VDDIO_Q corner_3/VCCHIB vddio corner_3/VCCD vssio corner_3/VSSD corner_3/VSSIO_Q
+ sky130_ef_io__com_bus_slice_20um
XFILLER_732 CLK_PAD/AMUXBUS_A CLK_PAD/AMUXBUS_B vssa corner_3/VDDA corner_3/VSWITCH
+ corner_3/VDDIO_Q corner_3/VCCHIB vddio corner_3/VCCD vssio corner_3/VSSD corner_3/VSSIO_Q
+ sky130_ef_io__com_bus_slice_20um
XFILLER_721 CLK_PAD/AMUXBUS_A CLK_PAD/AMUXBUS_B vssa corner_3/VDDA corner_3/VSWITCH
+ corner_3/VDDIO_Q corner_3/VCCHIB vddio corner_3/VCCD vssio corner_3/VSSD corner_3/VSSIO_Q
+ sky130_ef_io__com_bus_slice_20um
XFILLER_710 CLK_PAD/AMUXBUS_A CLK_PAD/AMUXBUS_B vssa corner_3/VDDA corner_3/VSWITCH
+ corner_3/VDDIO_Q corner_3/VCCHIB vddio corner_3/VCCD vssio corner_3/VSSD corner_3/VSSIO_Q
+ sky130_ef_io__com_bus_slice_20um
XFILLER_584 CLK_PAD/AMUXBUS_A CLK_PAD/AMUXBUS_B FILLER_580/VSSA FILLER_580/VDDA FILLER_580/VSWITCH
+ FILLER_580/VDDIO_Q FILLER_580/VCCHIB FILLER_580/VDDIO FILLER_580/VCCD FILLER_580/VSSIO
+ FILLER_580/VSSD FILLER_580/VSSIO_Q sky130_ef_io__com_bus_slice_5um
XFILLER_573 CLK_PAD/AMUXBUS_A CLK_PAD/AMUXBUS_B FILLER_580/VSSA FILLER_580/VDDA FILLER_580/VSWITCH
+ FILLER_580/VDDIO_Q FILLER_580/VCCHIB FILLER_580/VDDIO FILLER_580/VCCD FILLER_580/VSSIO
+ FILLER_580/VSSD FILLER_580/VSSIO_Q sky130_ef_io__com_bus_slice_20um
XFILLER_562 CLK_PAD/AMUXBUS_A CLK_PAD/AMUXBUS_B B_CP_PAD/VSSA B_CP_PAD/VDDA B_CP_PAD/VSWITCH
+ B_CP_PAD/VDDIO_Q B_CP_PAD/VCCHIB B_CP_PAD/VDDIO B_CP_PAD/VCCD B_CP_PAD/VSSIO B_CP_PAD/VSSD
+ B_CP_PAD/VSSIO_Q sky130_ef_io__com_bus_slice_1um
XFILLER_551 CLK_PAD/AMUXBUS_A CLK_PAD/AMUXBUS_B B_CP_PAD/VSSA B_CP_PAD/VDDA B_CP_PAD/VSWITCH
+ B_CP_PAD/VDDIO_Q B_CP_PAD/VCCHIB B_CP_PAD/VDDIO B_CP_PAD/VCCD B_CP_PAD/VSSIO B_CP_PAD/VSSD
+ B_CP_PAD/VSSIO_Q sky130_ef_io__com_bus_slice_20um
XFILLER_540 CLK_PAD/AMUXBUS_A CLK_PAD/AMUXBUS_B B_CP_PAD/VSSA B_CP_PAD/VDDA B_CP_PAD/VSWITCH
+ B_CP_PAD/VDDIO_Q B_CP_PAD/VCCHIB B_CP_PAD/VDDIO B_CP_PAD/VCCD B_CP_PAD/VSSIO B_CP_PAD/VSSD
+ B_CP_PAD/VSSIO_Q sky130_ef_io__com_bus_slice_20um
XENb_CP_PAD CLK_PAD/AMUXBUS_A CLK_PAD/AMUXBUS_B vssd vssd vssd ENb_CP_PAD/DM[2] ENb_CP_PAD/DM[1]
+ ENb_CP_PAD/DM[0] PORB ENb_CP_PAD/TIE_LO_ESD vssa vccd vssa vddio vssd vssd EN_CP_pll
+ ENb_CP_PAD/IN_H vssd vccd vssd EN_CP ENb_CP_PAD/PAD_A_ESD_0_H ENb_CP_PAD/PAD_A_ESD_1_H
+ ENb_CP_PAD/PAD_A_NOESD_H vssd ENb_CP_PAD/TIE_HI_ESD ENb_CP_PAD/TIE_LO_ESD B_CP_PAD/VCCD
+ B_CP_PAD/VCCHIB B_CP_PAD/VDDA B_CP_PAD/VDDIO B_CP_PAD/VDDIO_Q B_CP_PAD/VSSA B_CP_PAD/VSSD
+ B_CP_PAD/VSSIO B_CP_PAD/VSSIO_Q B_CP_PAD/VSWITCH vssd sky130_ef_io__gpiov2_pad_wrapped
XFILLER_595 CLK_PAD/AMUXBUS_A CLK_PAD/AMUXBUS_B CLK_PAD/VSSA vdda CLK_PAD/VSWITCH
+ CLK_PAD/VDDIO_Q CLK_PAD/VCCHIB CLK_PAD/VDDIO vccd CLK_PAD/VSSIO vssd CLK_PAD/VSSIO_Q
+ sky130_ef_io__com_bus_slice_20um
XFILLER_370 CLK_PAD/AMUXBUS_A CLK_PAD/AMUXBUS_B CLK_PAD/VSSA vdda CLK_PAD/VSWITCH
+ CLK_PAD/VDDIO_Q CLK_PAD/VCCHIB CLK_PAD/VDDIO vccd CLK_PAD/VSSIO vssd CLK_PAD/VSSIO_Q
+ sky130_ef_io__com_bus_slice_20um
XFILLER_392 CLK_PAD/AMUXBUS_A CLK_PAD/AMUXBUS_B CLK_PAD/VSSA vdda CLK_PAD/VSWITCH
+ CLK_PAD/VDDIO_Q CLK_PAD/VCCHIB CLK_PAD/VDDIO vccd CLK_PAD/VSSIO vssd CLK_PAD/VSSIO_Q
+ sky130_ef_io__com_bus_slice_20um
XFILLER_39 CLK_PAD/AMUXBUS_A CLK_PAD/AMUXBUS_B vssa corner_3/VDDA corner_3/VSWITCH
+ corner_3/VDDIO_Q corner_3/VCCHIB vddio corner_3/VCCD vssio corner_3/VSSD corner_3/VSSIO_Q
+ sky130_ef_io__com_bus_slice_20um
XFILLER_28 CLK_PAD/AMUXBUS_A CLK_PAD/AMUXBUS_B vssa corner_3/VDDA corner_3/VSWITCH
+ corner_3/VDDIO_Q corner_3/VCCHIB vddio corner_3/VCCD vssio corner_3/VSSD corner_3/VSSIO_Q
+ sky130_ef_io__com_bus_slice_20um
XFILLER_17 CLK_PAD/AMUXBUS_A CLK_PAD/AMUXBUS_B vssa corner_3/VDDA corner_3/VSWITCH
+ corner_3/VDDIO_Q corner_3/VCCHIB vddio corner_3/VCCD vssio corner_3/VSSD corner_3/VSSIO_Q
+ sky130_ef_io__com_bus_slice_20um
XFILLER_799 CLK_PAD/AMUXBUS_A CLK_PAD/AMUXBUS_B vssa corner_3/VDDA corner_3/VSWITCH
+ corner_3/VDDIO_Q corner_3/VCCHIB vddio corner_3/VCCD vssio corner_3/VSSD corner_3/VSSIO_Q
+ sky130_ef_io__com_bus_slice_1um
XFILLER_788 CLK_PAD/AMUXBUS_A CLK_PAD/AMUXBUS_B vssa corner_3/VDDA corner_3/VSWITCH
+ corner_3/VDDIO_Q corner_3/VCCHIB vddio corner_3/VCCD vssio corner_3/VSSD corner_3/VSSIO_Q
+ sky130_ef_io__com_bus_slice_20um
XFILLER_777 CLK_PAD/AMUXBUS_A CLK_PAD/AMUXBUS_B vssa corner_3/VDDA corner_3/VSWITCH
+ corner_3/VDDIO_Q corner_3/VCCHIB vddio corner_3/VCCD vssio corner_3/VSSD corner_3/VSSIO_Q
+ sky130_ef_io__com_bus_slice_20um
XFILLER_766 CLK_PAD/AMUXBUS_A CLK_PAD/AMUXBUS_B vssa corner_3/VDDA corner_3/VSWITCH
+ corner_3/VDDIO_Q corner_3/VCCHIB vddio corner_3/VCCD vssio corner_3/VSSD corner_3/VSSIO_Q
+ sky130_ef_io__com_bus_slice_20um
XFILLER_755 CLK_PAD/AMUXBUS_A CLK_PAD/AMUXBUS_B vssa corner_3/VDDA corner_3/VSWITCH
+ corner_3/VDDIO_Q corner_3/VCCHIB vddio corner_3/VCCD vssio corner_3/VSSD corner_3/VSSIO_Q
+ sky130_ef_io__com_bus_slice_20um
XFILLER_744 CLK_PAD/AMUXBUS_A CLK_PAD/AMUXBUS_B vssa corner_3/VDDA corner_3/VSWITCH
+ corner_3/VDDIO_Q corner_3/VCCHIB vddio corner_3/VCCD vssio corner_3/VSSD corner_3/VSSIO_Q
+ sky130_ef_io__com_bus_slice_1um
XFILLER_733 CLK_PAD/AMUXBUS_A CLK_PAD/AMUXBUS_B vssa corner_3/VDDA corner_3/VSWITCH
+ corner_3/VDDIO_Q corner_3/VCCHIB vddio corner_3/VCCD vssio corner_3/VSSD corner_3/VSSIO_Q
+ sky130_ef_io__com_bus_slice_20um
XFILLER_722 CLK_PAD/AMUXBUS_A CLK_PAD/AMUXBUS_B vssa corner_3/VDDA corner_3/VSWITCH
+ corner_3/VDDIO_Q corner_3/VCCHIB vddio corner_3/VCCD vssio corner_3/VSSD corner_3/VSSIO_Q
+ sky130_ef_io__com_bus_slice_20um
XFILLER_711 CLK_PAD/AMUXBUS_A CLK_PAD/AMUXBUS_B vssa corner_3/VDDA corner_3/VSWITCH
+ corner_3/VDDIO_Q corner_3/VCCHIB vddio corner_3/VCCD vssio corner_3/VSSD corner_3/VSSIO_Q
+ sky130_ef_io__com_bus_slice_20um
XFILLER_700 CLK_PAD/AMUXBUS_A CLK_PAD/AMUXBUS_B vssa corner_3/VDDA corner_3/VSWITCH
+ corner_3/VDDIO_Q corner_3/VCCHIB vddio corner_3/VCCD vssio corner_3/VSSD corner_3/VSSIO_Q
+ sky130_ef_io__com_bus_slice_20um
XFILLER_585 CLK_PAD/AMUXBUS_A CLK_PAD/AMUXBUS_B FILLER_580/VSSA FILLER_580/VDDA FILLER_580/VSWITCH
+ FILLER_580/VDDIO_Q FILLER_580/VCCHIB FILLER_580/VDDIO FILLER_580/VCCD FILLER_580/VSSIO
+ FILLER_580/VSSD FILLER_580/VSSIO_Q sky130_ef_io__com_bus_slice_1um
XFILLER_574 CLK_PAD/AMUXBUS_A CLK_PAD/AMUXBUS_B FILLER_580/VSSA FILLER_580/VDDA FILLER_580/VSWITCH
+ FILLER_580/VDDIO_Q FILLER_580/VCCHIB FILLER_580/VDDIO FILLER_580/VCCD FILLER_580/VSSIO
+ FILLER_580/VSSD FILLER_580/VSSIO_Q sky130_ef_io__com_bus_slice_20um
XFILLER_552 CLK_PAD/AMUXBUS_A CLK_PAD/AMUXBUS_B B_CP_PAD/VSSA B_CP_PAD/VDDA B_CP_PAD/VSWITCH
+ B_CP_PAD/VDDIO_Q B_CP_PAD/VCCHIB B_CP_PAD/VDDIO B_CP_PAD/VCCD B_CP_PAD/VSSIO B_CP_PAD/VSSD
+ B_CP_PAD/VSSIO_Q sky130_ef_io__com_bus_slice_20um
XFILLER_541 CLK_PAD/AMUXBUS_A CLK_PAD/AMUXBUS_B B_CP_PAD/VSSA B_CP_PAD/VDDA B_CP_PAD/VSWITCH
+ B_CP_PAD/VDDIO_Q B_CP_PAD/VCCHIB B_CP_PAD/VDDIO B_CP_PAD/VCCD B_CP_PAD/VSSIO B_CP_PAD/VSSD
+ B_CP_PAD/VSSIO_Q sky130_ef_io__com_bus_slice_20um
XFILLER_530 CLK_PAD/AMUXBUS_A CLK_PAD/AMUXBUS_B B_CP_PAD/VSSA B_CP_PAD/VDDA B_CP_PAD/VSWITCH
+ B_CP_PAD/VDDIO_Q B_CP_PAD/VCCHIB B_CP_PAD/VDDIO B_CP_PAD/VCCD B_CP_PAD/VSSIO B_CP_PAD/VSSD
+ B_CP_PAD/VSSIO_Q sky130_ef_io__com_bus_slice_20um
XFILLER_596 CLK_PAD/AMUXBUS_A CLK_PAD/AMUXBUS_B CLK_PAD/VSSA vdda CLK_PAD/VSWITCH
+ CLK_PAD/VDDIO_Q CLK_PAD/VCCHIB CLK_PAD/VDDIO vccd CLK_PAD/VSSIO vssd CLK_PAD/VSSIO_Q
+ sky130_ef_io__com_bus_slice_20um
XFILLER_360 CLK_PAD/AMUXBUS_A CLK_PAD/AMUXBUS_B CLK_PAD/VSSA vdda CLK_PAD/VSWITCH
+ CLK_PAD/VDDIO_Q CLK_PAD/VCCHIB CLK_PAD/VDDIO vccd CLK_PAD/VSSIO vssd CLK_PAD/VSSIO_Q
+ sky130_ef_io__com_bus_slice_20um
XFILLER_371 CLK_PAD/AMUXBUS_A CLK_PAD/AMUXBUS_B CLK_PAD/VSSA vdda CLK_PAD/VSWITCH
+ CLK_PAD/VDDIO_Q CLK_PAD/VCCHIB CLK_PAD/VDDIO vccd CLK_PAD/VSSIO vssd CLK_PAD/VSSIO_Q
+ sky130_ef_io__com_bus_slice_20um
XFILLER_382 CLK_PAD/AMUXBUS_A CLK_PAD/AMUXBUS_B CLK_PAD/VSSA vdda CLK_PAD/VSWITCH
+ CLK_PAD/VDDIO_Q CLK_PAD/VCCHIB CLK_PAD/VDDIO vccd CLK_PAD/VSSIO vssd CLK_PAD/VSSIO_Q
+ sky130_ef_io__com_bus_slice_20um
XFILLER_393 CLK_PAD/AMUXBUS_A CLK_PAD/AMUXBUS_B CLK_PAD/VSSA vdda CLK_PAD/VSWITCH
+ CLK_PAD/VDDIO_Q CLK_PAD/VCCHIB CLK_PAD/VDDIO vccd CLK_PAD/VSSIO vssd CLK_PAD/VSSIO_Q
+ sky130_ef_io__com_bus_slice_20um
XFILLER_190 CLK_PAD/AMUXBUS_A CLK_PAD/AMUXBUS_B CLK_PAD/VSSA vdda CLK_PAD/VSWITCH
+ CLK_PAD/VDDIO_Q CLK_PAD/VCCHIB CLK_PAD/VDDIO vccd CLK_PAD/VSSIO vssd CLK_PAD/VSSIO_Q
+ sky130_ef_io__com_bus_slice_20um
XFILLER_29 CLK_PAD/AMUXBUS_A CLK_PAD/AMUXBUS_B vssa corner_3/VDDA corner_3/VSWITCH
+ corner_3/VDDIO_Q corner_3/VCCHIB vddio corner_3/VCCD vssio corner_3/VSSD corner_3/VSSIO_Q
+ sky130_ef_io__com_bus_slice_20um
XFILLER_18 CLK_PAD/AMUXBUS_A CLK_PAD/AMUXBUS_B vssa corner_3/VDDA corner_3/VSWITCH
+ corner_3/VDDIO_Q corner_3/VCCHIB vddio corner_3/VCCD vssio corner_3/VSSD corner_3/VSSIO_Q
+ sky130_ef_io__com_bus_slice_20um
XFILLER_734 CLK_PAD/AMUXBUS_A CLK_PAD/AMUXBUS_B vssa corner_3/VDDA corner_3/VSWITCH
+ corner_3/VDDIO_Q corner_3/VCCHIB vddio corner_3/VCCD vssio corner_3/VSSD corner_3/VSSIO_Q
+ sky130_ef_io__com_bus_slice_20um
XFILLER_723 CLK_PAD/AMUXBUS_A CLK_PAD/AMUXBUS_B vssa corner_3/VDDA corner_3/VSWITCH
+ corner_3/VDDIO_Q corner_3/VCCHIB vddio corner_3/VCCD vssio corner_3/VSSD corner_3/VSSIO_Q
+ sky130_ef_io__com_bus_slice_20um
XFILLER_712 CLK_PAD/AMUXBUS_A CLK_PAD/AMUXBUS_B vssa corner_3/VDDA corner_3/VSWITCH
+ corner_3/VDDIO_Q corner_3/VCCHIB vddio corner_3/VCCD vssio corner_3/VSSD corner_3/VSSIO_Q
+ sky130_ef_io__com_bus_slice_20um
XFILLER_701 CLK_PAD/AMUXBUS_A CLK_PAD/AMUXBUS_B vssa corner_3/VDDA corner_3/VSWITCH
+ corner_3/VDDIO_Q corner_3/VCCHIB vddio corner_3/VCCD vssio corner_3/VSSD corner_3/VSSIO_Q
+ sky130_ef_io__com_bus_slice_20um
XFILLER_789 CLK_PAD/AMUXBUS_A CLK_PAD/AMUXBUS_B vssa corner_3/VDDA corner_3/VSWITCH
+ corner_3/VDDIO_Q corner_3/VCCHIB vddio corner_3/VCCD vssio corner_3/VSSD corner_3/VSSIO_Q
+ sky130_ef_io__com_bus_slice_20um
XFILLER_778 CLK_PAD/AMUXBUS_A CLK_PAD/AMUXBUS_B vssa corner_3/VDDA corner_3/VSWITCH
+ corner_3/VDDIO_Q corner_3/VCCHIB vddio corner_3/VCCD vssio corner_3/VSSD corner_3/VSSIO_Q
+ sky130_ef_io__com_bus_slice_20um
XFILLER_767 CLK_PAD/AMUXBUS_A CLK_PAD/AMUXBUS_B vssa corner_3/VDDA corner_3/VSWITCH
+ corner_3/VDDIO_Q corner_3/VCCHIB vddio corner_3/VCCD vssio corner_3/VSSD corner_3/VSSIO_Q
+ sky130_ef_io__com_bus_slice_20um
XFILLER_756 CLK_PAD/AMUXBUS_A CLK_PAD/AMUXBUS_B vssa corner_3/VDDA corner_3/VSWITCH
+ corner_3/VDDIO_Q corner_3/VCCHIB vddio corner_3/VCCD vssio corner_3/VSSD corner_3/VSSIO_Q
+ sky130_ef_io__com_bus_slice_20um
XFILLER_745 CLK_PAD/AMUXBUS_A CLK_PAD/AMUXBUS_B vssa corner_3/VDDA corner_3/VSWITCH
+ corner_3/VDDIO_Q corner_3/VCCHIB vddio corner_3/VCCD vssio corner_3/VSSD corner_3/VSSIO_Q
+ sky130_ef_io__com_bus_slice_1um
XFILLER_586 CLK_PAD/AMUXBUS_A CLK_PAD/AMUXBUS_B FILLER_580/VSSA FILLER_580/VDDA FILLER_580/VSWITCH
+ FILLER_580/VDDIO_Q FILLER_580/VCCHIB FILLER_580/VDDIO FILLER_580/VCCD FILLER_580/VSSIO
+ FILLER_580/VSSD FILLER_580/VSSIO_Q sky130_ef_io__com_bus_slice_1um
XFILLER_575 CLK_PAD/AMUXBUS_A CLK_PAD/AMUXBUS_B FILLER_580/VSSA FILLER_580/VDDA FILLER_580/VSWITCH
+ FILLER_580/VDDIO_Q FILLER_580/VCCHIB FILLER_580/VDDIO FILLER_580/VCCD FILLER_580/VSSIO
+ FILLER_580/VSSD FILLER_580/VSSIO_Q sky130_ef_io__com_bus_slice_20um
XFILLER_564 CLK_PAD/AMUXBUS_A CLK_PAD/AMUXBUS_B FILLER_580/VSSA FILLER_580/VDDA FILLER_580/VSWITCH
+ FILLER_580/VDDIO_Q FILLER_580/VCCHIB FILLER_580/VDDIO FILLER_580/VCCD FILLER_580/VSSIO
+ FILLER_580/VSSD FILLER_580/VSSIO_Q sky130_ef_io__com_bus_slice_20um
XFILLER_553 CLK_PAD/AMUXBUS_A CLK_PAD/AMUXBUS_B B_CP_PAD/VSSA B_CP_PAD/VDDA B_CP_PAD/VSWITCH
+ B_CP_PAD/VDDIO_Q B_CP_PAD/VCCHIB B_CP_PAD/VDDIO B_CP_PAD/VCCD B_CP_PAD/VSSIO B_CP_PAD/VSSD
+ B_CP_PAD/VSSIO_Q sky130_ef_io__com_bus_slice_20um
XFILLER_542 CLK_PAD/AMUXBUS_A CLK_PAD/AMUXBUS_B B_CP_PAD/VSSA B_CP_PAD/VDDA B_CP_PAD/VSWITCH
+ B_CP_PAD/VDDIO_Q B_CP_PAD/VCCHIB B_CP_PAD/VDDIO B_CP_PAD/VCCD B_CP_PAD/VSSIO B_CP_PAD/VSSD
+ B_CP_PAD/VSSIO_Q sky130_ef_io__com_bus_slice_20um
XFILLER_531 CLK_PAD/AMUXBUS_A CLK_PAD/AMUXBUS_B B_CP_PAD/VSSA B_CP_PAD/VDDA B_CP_PAD/VSWITCH
+ B_CP_PAD/VDDIO_Q B_CP_PAD/VCCHIB B_CP_PAD/VDDIO B_CP_PAD/VCCD B_CP_PAD/VSSIO B_CP_PAD/VSSD
+ B_CP_PAD/VSSIO_Q sky130_ef_io__com_bus_slice_20um
XFILLER_520 CLK_PAD/AMUXBUS_A CLK_PAD/AMUXBUS_B B_CP_PAD/VSSA B_CP_PAD/VDDA B_CP_PAD/VSWITCH
+ B_CP_PAD/VDDIO_Q B_CP_PAD/VCCHIB B_CP_PAD/VDDIO B_CP_PAD/VCCD B_CP_PAD/VSSIO B_CP_PAD/VSSD
+ B_CP_PAD/VSSIO_Q sky130_ef_io__com_bus_slice_20um
XFILLER_597 CLK_PAD/AMUXBUS_A CLK_PAD/AMUXBUS_B CLK_PAD/VSSA vdda CLK_PAD/VSWITCH
+ CLK_PAD/VDDIO_Q CLK_PAD/VCCHIB CLK_PAD/VDDIO vccd CLK_PAD/VSSIO vssd CLK_PAD/VSSIO_Q
+ sky130_ef_io__com_bus_slice_20um
XFILLER_350 CLK_PAD/AMUXBUS_A CLK_PAD/AMUXBUS_B CLK_PAD/VSSA vdda CLK_PAD/VSWITCH
+ CLK_PAD/VDDIO_Q CLK_PAD/VCCHIB CLK_PAD/VDDIO vccd CLK_PAD/VSSIO vssd CLK_PAD/VSSIO_Q
+ sky130_ef_io__com_bus_slice_20um
XFILLER_361 CLK_PAD/AMUXBUS_A CLK_PAD/AMUXBUS_B CLK_PAD/VSSA vdda CLK_PAD/VSWITCH
+ CLK_PAD/VDDIO_Q CLK_PAD/VCCHIB CLK_PAD/VDDIO vccd CLK_PAD/VSSIO vssd CLK_PAD/VSSIO_Q
+ sky130_ef_io__com_bus_slice_20um
XFILLER_372 CLK_PAD/AMUXBUS_A CLK_PAD/AMUXBUS_B CLK_PAD/VSSA vdda CLK_PAD/VSWITCH
+ CLK_PAD/VDDIO_Q CLK_PAD/VCCHIB CLK_PAD/VDDIO vccd CLK_PAD/VSSIO vssd CLK_PAD/VSSIO_Q
+ sky130_ef_io__com_bus_slice_20um
XFILLER_383 CLK_PAD/AMUXBUS_A CLK_PAD/AMUXBUS_B CLK_PAD/VSSA vdda CLK_PAD/VSWITCH
+ CLK_PAD/VDDIO_Q CLK_PAD/VCCHIB CLK_PAD/VDDIO vccd CLK_PAD/VSSIO vssd CLK_PAD/VSSIO_Q
+ sky130_ef_io__com_bus_slice_20um
XFILLER_394 CLK_PAD/AMUXBUS_A CLK_PAD/AMUXBUS_B CLK_PAD/VSSA vdda CLK_PAD/VSWITCH
+ CLK_PAD/VDDIO_Q CLK_PAD/VCCHIB CLK_PAD/VDDIO vccd CLK_PAD/VSSIO vssd CLK_PAD/VSSIO_Q
+ sky130_ef_io__com_bus_slice_20um
XFILLER_19 CLK_PAD/AMUXBUS_A CLK_PAD/AMUXBUS_B vssa corner_3/VDDA corner_3/VSWITCH
+ corner_3/VDDIO_Q corner_3/VCCHIB vddio corner_3/VCCD vssio corner_3/VSSD corner_3/VSSIO_Q
+ sky130_ef_io__com_bus_slice_20um
XFILLER_191 CLK_PAD/AMUXBUS_A CLK_PAD/AMUXBUS_B CLK_PAD/VSSA vdda CLK_PAD/VSWITCH
+ CLK_PAD/VDDIO_Q CLK_PAD/VCCHIB CLK_PAD/VDDIO vccd CLK_PAD/VSSIO vssd CLK_PAD/VSSIO_Q
+ sky130_ef_io__com_bus_slice_20um
XFILLER_180 CLK_PAD/AMUXBUS_A CLK_PAD/AMUXBUS_B CLK_PAD/VSSA vdda CLK_PAD/VSWITCH
+ CLK_PAD/VDDIO_Q CLK_PAD/VCCHIB CLK_PAD/VDDIO vccd CLK_PAD/VSSIO vssd CLK_PAD/VSSIO_Q
+ sky130_ef_io__com_bus_slice_20um
XFILLER_779 CLK_PAD/AMUXBUS_A CLK_PAD/AMUXBUS_B vssa corner_3/VDDA corner_3/VSWITCH
+ corner_3/VDDIO_Q corner_3/VCCHIB vddio corner_3/VCCD vssio corner_3/VSSD corner_3/VSSIO_Q
+ sky130_ef_io__com_bus_slice_20um
XFILLER_768 CLK_PAD/AMUXBUS_A CLK_PAD/AMUXBUS_B vssa corner_3/VDDA corner_3/VSWITCH
+ corner_3/VDDIO_Q corner_3/VCCHIB vddio corner_3/VCCD vssio corner_3/VSSD corner_3/VSSIO_Q
+ sky130_ef_io__com_bus_slice_20um
XFILLER_757 CLK_PAD/AMUXBUS_A CLK_PAD/AMUXBUS_B vssa corner_3/VDDA corner_3/VSWITCH